LTspice 24.0.9 for Windows
Circuit: * Z:\home\mauricio\Projects\TalkingMolecules\graphene_cycle\led_driver\Draft1.asc
Start Time: Sun Sep  8 18:44:23 2024
Warning: Multiple definitions of model "2scr375p" Type: BJT
Warning: Multiple definitions of model "bc857b" Type: BJT
Warning: Multiple definitions of model "bc847c" Type: BJT
Warning: Multiple definitions of model "bc847b" Type: BJT
solver = Normal
Maximum thread count: 12
tnom = 27
temp = 27
method = modified trap
Direct Newton iteration for .op point succeeded.
Total elapsed time: 0.230 seconds.

